IEEETestCases/123Bus/ieee123_VLN.Txt

SYMMETRICAL COMPONENT VOLTAGES BY BUS (for 3-phase buses)

Bus       Mag:   V1 (kV)    p.u.     V2 (kV)   %V2/V1    V0 (kV)    %V0/V1

150          2.402          1  7.369E-006  0.0003068 6.034E-006 0.0002512
150r         2.492      1.037  1.029E-005   0.000413 8.428E-006 0.0003382
149          2.492      1.037  1.029E-005   0.000413 8.428E-006 0.0003382
1            2.473       1.03   0.006304     0.2549  0.009907    0.4006
2            2.486      1.035          0          0         0         0
3            2.467      1.027          0          0         0         0
7             2.46      1.024    0.01076     0.4375   0.01726    0.7017
4            2.466      1.027          0          0         0         0
5            2.464      1.026          0          0         0         0
6            2.462      1.025          0          0         0         0
8            2.451       1.02    0.01366     0.5574   0.02195    0.8955
12           2.478      1.032          0          0         0         0
9            2.421      1.008          0          0         0         0
13           2.438      1.015    0.01753     0.7191   0.02743     1.125
9r           2.421      1.008          0          0         0         0
14           2.417      1.006          0          0         0         0
34           2.433      1.013          0          0         0         0
18           2.422      1.008    0.01796     0.7416   0.03496     1.444
11           2.416      1.006          0          0         0         0
10           2.416      1.006          0          0         0         0
15           2.432      1.013          0          0         0         0
16            2.43      1.012          0          0         0         0
17           2.431      1.012          0          0         0         0
19           2.381     0.9912          0          0         0         0
21            2.42      1.008     0.0182     0.7518   0.03598     1.487
20           2.379     0.9903          0          0         0         0
22            2.46      1.024          0          0         0         0
23           2.419      1.007    0.01861     0.7691   0.03732     1.543
24           2.409      1.003          0          0         0         0
25           2.418      1.007    0.01908      0.789   0.03897     1.611
25r          2.409      1.003          0          0         0         0
26           2.409      1.003          0          0         0         0
28           2.418      1.007    0.01931     0.7987   0.03981     1.646
27           2.408      1.003          0          0         0         0
31           2.408      1.002          0          0         0         0
33           2.405      1.001          0          0         0         0
29           2.418      1.007    0.01948     0.8058   0.04036     1.669
30           2.418      1.007    0.01947     0.8054   0.04019     1.662
250          2.418      1.007    0.01947     0.8054   0.04019     1.662
32           2.407      1.002          0          0         0         0
35           2.417      1.006    0.01859     0.7692   0.03482     1.441
36           2.375     0.9887          0          0         0         0
40           2.414      1.005    0.01887      0.782    0.0348     1.442
37           2.373     0.9879          0          0         0         0
38           2.455      1.022          0          0         0         0
39           2.454      1.022          0          0         0         0
41           2.412      1.004          0          0         0         0
42           2.411      1.004    0.01915     0.7945   0.03489     1.448
43           2.449       1.02          0          0         0         0
44           2.409      1.003    0.01943     0.8067   0.03504     1.455
45           2.366     0.9851          0          0         0         0
47           2.406      1.002    0.01959     0.8142   0.03468     1.441
46           2.365     0.9847          0          0         0         0
48           2.405      1.002    0.01965      0.817   0.03462     1.439
49           2.405      1.001    0.01966     0.8176   0.03425     1.424
50           2.405      1.001    0.01979      0.823   0.03432     1.427
51           2.405      1.001    0.01989      0.827   0.03461     1.439
151          2.405      1.001    0.01989      0.827   0.03461     1.439
52            2.43      1.012    0.02061     0.8483   0.03178     1.308
53           2.426       1.01      0.022     0.9069   0.03349      1.38
54           2.423      1.009    0.02277     0.9396   0.03425     1.413
55           2.423      1.009    0.02278     0.9402   0.03436     1.418
57           2.417      1.006    0.02339      0.968   0.03535     1.463
56           2.423      1.009    0.02269     0.9364   0.03414     1.409
58            2.46      1.024          0          0         0         0
60           2.403          1    0.02543      1.058     0.039     1.623
59           2.459      1.024          0          0         0         0
61           2.403          1    0.02543      1.058     0.039     1.623
62             2.4     0.9991    0.02513      1.047   0.03893     1.623
63           2.398     0.9983    0.02505      1.045   0.03863     1.611
64           2.394     0.9968    0.02443       1.02   0.03751     1.567
65           2.391     0.9955    0.02406      1.006   0.03893     1.628
66            2.39     0.9951    0.02366     0.9898   0.04011     1.678
67           2.473       1.03    0.01932     0.7813   0.02338    0.9452
68           2.467      1.027          0          0         0         0
72           2.473       1.03    0.01951     0.7891   0.02284    0.9239
97           2.471      1.029    0.01964     0.7947   0.02399    0.9707
69           2.463      1.026          0          0         0         0
70            2.46      1.024          0          0         0         0
71           2.459      1.024          0          0         0         0
73           2.465      1.026          0          0         0         0
76           2.473       1.03    0.02008     0.8121   0.02194    0.8874
74           2.461      1.025          0          0         0         0
75           2.458      1.024          0          0         0         0
77           2.475      1.031     0.0197     0.7959   0.02193    0.8858
86           2.472      1.029    0.02118     0.8567   0.01904    0.7702
78           2.476      1.031    0.01958     0.7909   0.02215    0.8944
79           2.476      1.031    0.01971     0.7962   0.02248    0.9081
80            2.48      1.032    0.01874     0.7556   0.02251    0.9078
81           2.481      1.033    0.01838     0.7409   0.02306    0.9293
82           2.483      1.034    0.01817     0.7318   0.02348    0.9455
84           2.471      1.029          0          0         0         0
83           2.486      1.035    0.01782     0.7167   0.02356    0.9476
85           2.468      1.028          0          0         0         0
87           2.471      1.029    0.02161     0.8745   0.01795    0.7262
88           2.468      1.028          0          0         0         0
89           2.471      1.029    0.02157     0.8731   0.01722    0.6967
90           2.469      1.028          0          0         0         0
91           2.471      1.029    0.02169     0.8779   0.01664    0.6737
92           2.477      1.031          0          0         0         0
93            2.47      1.029    0.02188     0.8858   0.01663    0.6733
94           2.464      1.026          0          0         0         0
95            2.47      1.029    0.02197     0.8896   0.01604    0.6492
96           2.466      1.027          0          0         0         0
98           2.471      1.029    0.01969      0.797   0.02397    0.9701
99            2.47      1.028    0.01946     0.7876   0.02314    0.9366
100           2.47      1.028    0.01924     0.7789   0.02342    0.9481
450           2.47      1.028    0.01924     0.7789   0.02342    0.9481
197          2.471      1.029    0.01964     0.7947   0.02399    0.9707
101           2.47      1.028    0.01991     0.8061   0.02463     0.997
102          2.464      1.026          0          0         0         0
105          2.469      1.028    0.02068     0.8374   0.02493      1.01
103           2.46      1.024          0          0         0         0
104          2.456      1.023          0          0         0         0
106          2.474       1.03          0          0         0         0
108          2.468      1.028    0.02142     0.8677    0.0269      1.09
107           2.47      1.028          0          0         0         0
109           2.45       1.02          0          0         0         0
300          2.468      1.028    0.02142     0.8677    0.0269      1.09
110          2.445      1.018          0          0         0         0
111          2.444      1.017          0          0         0         0
112          2.444      1.017          0          0         0         0
113          2.439      1.015          0          0         0         0
114          2.438      1.015          0          0         0         0
135          2.422      1.008    0.01796     0.7416   0.03496     1.444
152          2.438      1.015    0.01753     0.7191   0.02743     1.125
160r         2.477      1.031    0.01897     0.7656   0.02121    0.8561
160          2.403          1    0.02543      1.058     0.039     1.623
61s          2.403          1    0.02543      1.058     0.039     1.623
300_open     2.405      1.001    0.01989      0.827   0.03461     1.439
94_open      2.381     0.9913          0          0         0         0
610         0.2772          1   0.002934      1.058 9.813E-010 3.54E-007
